Version 4
SHEET 1 2300 3356
WIRE -640 -144 -640 -176
WIRE 560 -128 560 -192
WIRE 560 -64 560 -128
WIRE -560 -16 -560 -32
WIRE 720 -16 688 -16
WIRE 832 -16 720 -16
WIRE -560 16 -560 -16
WIRE -1104 32 -1184 32
WIRE -976 32 -1024 32
WIRE -800 32 -976 32
WIRE -640 32 -640 -64
WIRE -640 32 -720 32
WIRE -592 32 -640 32
WIRE 720 32 688 32
WIRE -496 48 -528 48
WIRE -272 48 -496 48
WIRE -160 48 -192 48
WIRE -96 48 -160 48
WIRE -976 64 -976 32
WIRE -640 64 -688 64
WIRE -592 64 -640 64
WIRE 80 64 -32 64
WIRE 336 64 80 64
WIRE -1488 80 -1488 16
WIRE -96 80 -128 80
WIRE 752 80 688 80
WIRE 800 80 752 80
WIRE 896 80 880 80
WIRE -560 96 -560 80
WIRE 336 96 208 96
WIRE -560 112 -560 96
WIRE 720 128 688 128
WIRE -272 144 -352 144
WIRE -160 144 -160 48
WIRE -160 144 -192 144
WIRE -640 160 -640 64
WIRE -608 160 -640 160
WIRE -496 160 -496 48
WIRE -496 160 -528 160
WIRE 384 176 384 144
WIRE 864 176 688 176
WIRE 1040 176 864 176
WIRE -1184 192 -1184 32
WIRE -1120 192 -1184 192
WIRE -976 192 -976 144
WIRE -976 192 -1040 192
WIRE -800 192 -976 192
WIRE -688 192 -688 64
WIRE -688 192 -720 192
WIRE 1040 208 1040 176
WIRE -1488 224 -1488 160
WIRE -1376 224 -1488 224
WIRE -128 224 -128 80
WIRE -16 224 -128 224
WIRE 80 224 80 64
WIRE 80 224 64 224
WIRE 384 224 384 176
WIRE -1376 240 -1376 224
WIRE 560 240 560 224
WIRE -128 256 -128 224
WIRE -80 256 -128 256
WIRE -1488 272 -1488 224
WIRE -80 352 -80 336
WIRE -1488 384 -1488 352
WIRE -576 400 -576 368
WIRE 736 432 736 400
WIRE -448 480 -576 480
WIRE -352 496 -352 144
WIRE -352 496 -384 496
WIRE -448 512 -512 512
WIRE 864 512 736 512
WIRE 960 528 928 528
WIRE 1008 528 960 528
WIRE 1024 528 1008 528
WIRE 864 544 800 544
WIRE -576 576 -576 560
WIRE -512 576 -512 512
WIRE -352 576 -352 496
WIRE -352 576 -512 576
WIRE 736 608 736 592
WIRE 800 608 800 544
WIRE 960 608 960 528
WIRE 960 608 800 608
WIRE 48 624 32 624
WIRE 160 624 144 624
WIRE 272 624 256 624
WIRE 32 640 32 624
WIRE 144 640 144 624
WIRE 256 640 256 624
WIRE -256 720 -416 720
WIRE 32 736 32 720
WIRE 144 736 144 720
WIRE 256 736 256 720
WIRE -416 800 -416 720
WIRE -368 800 -368 784
WIRE -336 800 -336 784
WIRE -304 800 -304 784
WIRE -256 800 -256 720
WIRE 768 800 768 736
WIRE 48 832 16 832
WIRE 768 864 768 800
WIRE 48 880 48 832
WIRE 48 880 16 880
WIRE -1232 912 -1264 912
WIRE -1104 912 -1152 912
WIRE -480 912 -1104 912
WIRE 928 912 896 912
WIRE 992 912 928 912
WIRE 48 944 48 880
WIRE 48 944 16 944
WIRE -1264 960 -1264 912
WIRE 928 960 896 960
WIRE -1104 976 -1104 912
WIRE 544 992 288 992
WIRE 960 1008 896 1008
WIRE 1008 1008 960 1008
WIRE 1104 1008 1088 1008
WIRE 160 1024 16 1024
WIRE 288 1024 288 992
WIRE 288 1024 160 1024
WIRE 544 1024 416 1024
WIRE 160 1056 160 1024
WIRE 928 1056 896 1056
WIRE 592 1104 592 1072
WIRE 960 1104 896 1104
WIRE 1072 1104 960 1104
WIRE -1264 1136 -1264 1040
WIRE -1104 1136 -1104 1056
WIRE -1104 1136 -1264 1136
WIRE -480 1136 -1104 1136
WIRE 592 1152 592 1104
WIRE 160 1168 160 1136
WIRE 768 1168 768 1152
WIRE -416 1200 -416 1184
WIRE -384 1312 -384 1280
WIRE 560 1360 560 1328
WIRE 1104 1360 1104 1328
WIRE -256 1392 -384 1392
WIRE -160 1408 -160 1184
WIRE -160 1408 -192 1408
WIRE -256 1424 -320 1424
WIRE 560 1472 560 1440
WIRE -384 1488 -384 1472
WIRE -320 1488 -320 1424
WIRE -160 1488 -160 1408
WIRE -160 1488 -320 1488
WIRE 1104 1488 1104 1440
FLAG -576 576 0
FLAG -80 352 0
FLAG -64 160 0
FLAG -64 96 VCC
FLAG -64 32 VEE
FLAG 80 64 Vo
FLAG -416 592 0
FLAG -416 528 VCC
FLAG -416 464 VEE
FLAG -560 96 VCC
FLAG -560 -16 VEE
FLAG -640 -176 0
FLAG 560 240 0
FLAG 896 80 0
FLAG 752 80 Vout
FLAG 864 176 CNV
FLAG 384 176 _RST
FLAG 720 32 vOrto
FLAG 720 128 Busy
FLAG 208 96 0
FLAG -416 1200 0
FLAG -416 720 VCC
FLAG 160 1168 0
FLAG -368 784 A0
FLAG -336 784 A1
FLAG -304 784 A2
FLAG 32 736 0
FLAG 32 624 A0
FLAG 144 736 0
FLAG 144 624 A1
FLAG 256 736 0
FLAG 256 624 A2
FLAG -384 1488 0
FLAG -224 1504 0
FLAG -224 1440 VCC
FLAG -224 1376 VEE
FLAG 1104 1488 0
FLAG 560 1472 0
FLAG 768 1168 0
FLAG 1104 1008 0
FLAG 960 1008 Vout2
FLAG 1104 1328 CNV
FLAG 592 1104 _RST
FLAG 928 960 vOrto2
FLAG 928 1056 Busy2
FLAG 416 1024 0
FLAG -1376 240 0
FLAG -1488 16 VCC
FLAG -1488 384 VEE
FLAG -576 368 VCC
FLAG -384 1280 VCC
FLAG 960 1104 CNV
FLAG 560 1328 _RST
FLAG 720 -16 VCC
FLAG 928 912 VCC
FLAG 736 608 0
FLAG 896 624 0
FLAG 896 560 VCC
FLAG 896 496 VEE
FLAG 736 400 VCC
FLAG 1008 528 REF
FLAG 560 -128 REF
FLAG 768 800 REF
SYMBOL res -560 464 M0
SYMATTR InstName R1
SYMATTR Value 20k
SYMBOL res -560 384 M0
SYMATTR InstName R2
SYMATTR Value 40.6k
SYMBOL res -176 32 R90
WINDOW 0 0 56 VBottom 2
WINDOW 3 32 56 VTop 2
SYMATTR InstName R3
SYMATTR Value 10k
SYMBOL res -176 128 R90
WINDOW 0 0 56 VBottom 2
WINDOW 3 32 56 VTop 2
SYMATTR InstName R4
SYMATTR Value 10k
SYMBOL res -64 352 R180
WINDOW 0 36 76 Left 2
WINDOW 3 36 40 Left 2
SYMATTR InstName R5
SYMATTR Value 10k
SYMBOL res -32 240 R270
WINDOW 0 32 56 VTop 2
WINDOW 3 0 56 VBottom 2
SYMATTR InstName R6
SYMATTR Value 10k
SYMBOL cap -80 96 R0
WINDOW 0 47 24 Left 2
WINDOW 3 38 48 Left 2
SYMATTR InstName C1
SYMATTR Value 100nF
SYMBOL cap -432 528 R0
WINDOW 0 36 10 Left 2
WINDOW 3 -73 21 Left 2
SYMATTR InstName C2
SYMATTR Value 100nF
SYMBOL OpAmps\\UniversalOpAmp2 -560 48 M180
WINDOW 0 27 23 Left 2
SYMATTR InstName U3
SYMATTR Value2 Avol=10Meg GBW=10Meg Slew=10Meg
SYMATTR SpiceLine Ilimit=25m Rail=0 Vos=0.25u
SYMATTR SpiceLine2 En=7n Enk=0 In=0 Ink=0 Rin=500Meg
SYMBOL res -704 16 R90
WINDOW 0 0 56 VBottom 2
WINDOW 3 32 56 VTop 2
SYMATTR InstName R7
SYMATTR Value 1700k
SYMBOL res -704 176 R90
WINDOW 0 0 56 VBottom 2
WINDOW 3 32 56 VTop 2
SYMATTR InstName R8
SYMATTR Value 1700k
SYMBOL res -512 144 R90
WINDOW 0 0 56 VBottom 2
WINDOW 3 32 56 VTop 2
SYMATTR InstName R9
SYMATTR Value 10k
SYMBOL res -656 -160 R0
SYMATTR InstName R10
SYMATTR Value 10k
SYMBOL res 784 96 R270
WINDOW 0 32 56 VTop 2
WINDOW 3 0 56 VBottom 2
SYMATTR InstName R11
SYMATTR Value 10k
SYMBOL AD4030-24 592 80 R0
SYMATTR InstName U4
SYMBOL res 144 1040 R0
SYMATTR InstName R16
SYMATTR Value 10k
SYMBOL voltage 32 624 R0
SYMATTR InstName V3
SYMATTR Value {A0}
SYMBOL voltage 144 624 R0
SYMATTR InstName V13
SYMATTR Value {A1}
SYMBOL voltage 256 624 R0
SYMATTR InstName V14
SYMATTR Value {A2}
SYMBOL AD8231 -256 992 R0
SYMATTR InstName U7
SYMBOL res -1120 960 R0
SYMATTR InstName Rload2
SYMATTR Value 10m
SYMBOL voltage -1264 944 R0
WINDOW 3 -217 84 Left 2
WINDOW 123 0 0 Left 0
WINDOW 39 0 0 Left 0
SYMATTR Value SINE(0 170 60)
SYMATTR InstName Vin2
SYMBOL res -1136 896 R90
WINDOW 0 0 56 VBottom 2
WINDOW 3 32 56 VTop 2
SYMATTR InstName R17
SYMATTR Value 17
SYMBOL OpAmps\\UniversalOpAmp2 -224 1408 M180
WINDOW 0 23 27 Left 2
SYMATTR InstName U8
SYMBOL res -368 1376 M0
SYMATTR InstName R18
SYMATTR Value 20k
SYMBOL res -368 1296 M0
SYMATTR InstName R19
SYMATTR Value 40.6k
SYMBOL cap -240 1440 R0
WINDOW 0 36 10 Left 2
WINDOW 3 -73 21 Left 2
SYMATTR InstName C4
SYMATTR Value 100nF
SYMBOL voltage 1104 1344 R0
WINDOW 123 0 0 Left 0
WINDOW 39 0 0 Left 0
WINDOW 3 -456 100 Left 2
SYMATTR Value PULSE(0 1.8 500n .2n .2n 19.8n 50u)
SYMATTR InstName V16
SYMBOL voltage 560 1344 M0
WINDOW 123 0 0 Left 0
WINDOW 39 0 0 Left 0
SYMATTR InstName V17
SYMATTR Value PWL(0 0 1n 0 2n 1.8)
SYMBOL res 992 1024 R270
WINDOW 0 32 56 VTop 2
WINDOW 3 0 56 VBottom 2
SYMATTR InstName R20
SYMATTR Value 10k
SYMBOL AD4030-24 800 1008 R0
SYMATTR InstName U9
SYMBOL voltage -1488 64 R0
WINDOW 123 0 0 Left 0
WINDOW 39 0 0 Left 0
SYMATTR InstName V6
SYMATTR Value 5
SYMBOL voltage -1488 256 R0
WINDOW 123 0 0 Left 0
WINDOW 39 0 0 Left 0
SYMATTR InstName V7
SYMATTR Value 5
SYMBOL res -1024 176 R90
WINDOW 0 0 56 VBottom 2
WINDOW 3 32 56 VTop 2
SYMATTR InstName Rload1
SYMATTR Value 10m
SYMBOL voltage -1008 32 R90
WINDOW 3 -217 84 Left 2
WINDOW 123 0 0 Left 0
WINDOW 39 0 0 Left 0
SYMATTR Value SINE(0 170 60)
SYMATTR InstName Vin1
SYMBOL res -960 160 R180
WINDOW 0 36 76 Left 2
WINDOW 3 36 40 Left 2
SYMATTR InstName R12
SYMATTR Value 17
SYMBOL OpAmps\\UniversalOpAmp2 896 528 M180
WINDOW 0 23 27 Left 2
SYMATTR InstName U5
SYMBOL res 752 496 M0
SYMATTR InstName R13
SYMATTR Value 20k
SYMBOL res 752 416 M0
SYMATTR InstName R14
SYMATTR Value 2.22k
SYMBOL cap 880 560 R0
WINDOW 0 36 10 Left 2
WINDOW 3 -73 21 Left 2
SYMATTR InstName C3
SYMATTR Value 100nF
SYMBOL OpAmps\\UniversalOpAmp2 -416 496 M180
WINDOW 0 27 23 Left 2
SYMATTR InstName U1
SYMATTR Value2 Avol=10Meg GBW=10Meg Slew=10Meg
SYMATTR SpiceLine Ilimit=25m Rail=0 Vos=0.25u
SYMATTR SpiceLine2 En=7n Enk=0 In=0 Ink=0 Rin=500Meg
SYMBOL OpAmps\\UniversalOpAmp2 -64 64 M180
WINDOW 0 27 23 Left 2
SYMATTR InstName U2
SYMATTR Value2 Avol=10Meg GBW=10Meg Slew=10Meg
SYMATTR SpiceLine Ilimit=25m Rail=0 Vos=0.25u
SYMATTR SpiceLine2 En=7n Enk=0 In=0 Ink=0 Rin=500Meg
TEXT -1048 672 Left 2 !.tran 0 17m 1u 1u
TEXT -920 792 Left 2 !;.ac dec 20 100 10Meg\n.param Vdd=5\n.param Gain=16
TEXT -1080 1336 Left 2 ;PGA gain control
TEXT -1088 1368 Left 2 !.param A0=0\n.param A1=0\n.param A2=3.3
